<?xml version="1.0" encoding="UTF-8"?>

<routes xmlns:xsi="http://www.w3.org/2001/XMLSchema-instance" xsi:noNamespaceSchemaLocation="http://sumo.dlr.de/xsd/routes_file.xsd">
    <vType accel="1.5" decel="4.5" id="car" length="5" maxSpeed="36.1" guiShape="passenger/sedan"/>
    <vType accel="0.4" decel="4.5" id="truck" length="12" maxSpeed="22.2"  guiShape="ship"/>
    <trip id="555" from="37392508" to="35781569#2" type="car" depart="0"/>
   
    <flow id="tructype1" color="1,0,0" from="148233392#1" to="296896086#0" probability="1" type="truck"/>
    <flow id="tructype2" color="1,0,0" from="148233399#1" to="296896086#0" probability="1" type="truck"/>
    <flow id="tructype3" color="1,0,0" from="148233399#0" to="296896086#0" probability="1" type="truck"/>
    <flow id="tructype4" color="1,0,0" from="126765636#3" to="296896086#0" probability="1" type="truck"/>
    <flow id="tructype5" color="1,0,0" from="126765636#0" to="296896086#0" probability="1" type="truck"/>
    <flow id="tructype6" color="1,0,0" from="301322407#2" to="296896086#0" probability="1" type="truck"/>
	<flow id="tructype7" color="1,0,0" from="96029828#1" to="296896086#0" probability="1" type="truck"/>
    <flow id="tructype8" color="1,0,0" from="59546340" to="296896086#0" probability="1" type="truck"/>
    <flow id="tructype9" color="1,0,0" from="301322407#0" to="296896086#0" probability="1" type="truck"/>
    
    
    

    <flow id="cartype1" color="1,0,0" from="148233392#1" to="296896086#0" probability="1" type="car"/>
    <flow id="cartype2" color="1,0,0" from="148233399#1" to="296896086#0" probability="1" type="car"/>
    <flow id="cartype3" color="1,0,0" from="148233399#0" to="296896086#0" probability="1" type="car"/>
    <flow id="cartype4" color="1,0,0" from="126765636#3" to="296896086#0" probability="1" type="car"/>
    <flow id="cartype5" color="1,0,0" from="126765636#0" to="296896086#0" probability="1" type="car"/>
    <flow id="cartype6" color="1,0,0" from="301322407#2" to="296896086#0" probability="1" type="car"/>
    <flow id="cartype7" color="1,0,0" from="296896085#3" to="296896086#0" probability="1" type="car"/>
    <flow id="cartype8" color="1,0,0" from="96029828#1" to="296896086#0" probability="1" type="car"/>
    <flow id="cartype9" color="1,0,0" from="59546340" to="296896086#0" probability="1" type="car"/>
    <flow id="cartype10" color="1,0,0" from="301322407#0" to="296896086#0" probability="1" type="car"/>

</routes>