<?xml version="1.0" encoding="UTF-8"?>

<!-- generated on 01/20/17 13:54:46 by SUMO polyconvert Version 0.28.0
<?xml version="1.0" encoding="UTF-8"?>

<configuration xmlns:xsi="http://www.w3.org/2001/XMLSchema-instance" xsi:noNamespaceSchemaLocation="http://sumo.dlr.de/xsd/polyconvertConfiguration.xsd">

    <input>
        <net-file value="map.net.xml"/>
        <osm-files value="map.osm"/>
        <type-file value="typemap.xml"/>
    </input>

    <output>
        <output-file value="map.poly.xml"/>
    </output>

    <processing>
        <poi-layer-offset value="5"/>
    </processing>

</configuration>
-->

<additional xmlns:xsi="http://www.w3.org/2001/XMLSchema-instance" xsi:noNamespaceSchemaLocation="http://sumo.dlr.de/xsd/additional_file.xsd">
    <location netOffset="-350748.19,-5255731.94" convBoundary="-15705.79,-53759.20,24354.66,12627.61" origBoundary="18.825609,46.956898,19.349684,47.549913" projParameter="+proj=utm +zone=34 +ellps=WGS84 +datum=WGS84 +units=m +no_defs"/>

    <poly id="103556355" type="building" color="255,230,230" fill="1" layer="-1.00" shape="1073.49,3303.94 1075.12,3304.29 1073.26,3313.12 1035.16,3305.12 1038.29,3290.30 1074.75,3297.95 1073.49,3303.94"/>
    <poly id="103556355#1" type="shop" color="237,199,255" fill="1" layer="-1.00" shape="1073.49,3303.94 1075.12,3304.29 1073.26,3313.12 1035.16,3305.12 1038.29,3290.30 1074.75,3297.95 1073.49,3303.94"/>
    <poly id="104335073" type="building" color="255,230,230" fill="1" layer="-1.00" shape="2811.02,4160.08 2805.08,4156.00 2799.11,4157.85 2791.47,4158.90 2783.77,4159.69 2775.18,4159.45 2767.22,4158.73 2759.29,4156.48 2750.90,4153.20 2743.18,4149.31 2735.11,4144.14 2729.35,4139.05 2725.31,4135.44 2719.94,4130.41 2713.43,4135.81 2719.18,4142.40 2720.36,4143.05 2725.31,4147.57 2730.86,4151.69 2736.11,4154.92 2742.23,4158.55 2749.07,4161.51 2748.41,4167.38 2757.02,4170.98 2765.94,4173.65 2775.25,4174.59 2784.14,4174.63 2791.78,4173.57 2791.82,4169.50 2798.68,4168.53 2803.56,4167.37 2804.64,4169.21 2811.02,4160.08"/>
    <poly id="104335075" type="building" color="255,230,230" fill="1" layer="-1.00" shape="2714.88,4162.17 2733.72,4176.87 2727.65,4185.47 2715.97,4177.85 2714.39,4179.20 2702.81,4171.18 2711.62,4161.43 2713.00,4162.30 2714.05,4161.77 2714.88,4162.17"/>
    <poly id="104335076" type="building" color="255,230,230" fill="1" layer="-1.00" shape="2715.95,4145.08 2716.82,4147.16 2702.05,4154.02 2704.19,4156.55 2696.01,4164.26 2689.84,4157.54 2683.65,4148.49 2711.22,4134.40 2712.16,4136.59 2713.43,4135.81 2719.18,4142.40 2717.20,4144.22 2715.95,4145.08"/>
    <poly id="105945543" type="leisure" color="207,245,201" fill="1" layer="-2.00" shape="2400.38,5016.66 2432.32,5017.80 2431.99,5031.71 2400.10,5031.07 2399.73,5029.05 2396.74,5027.69 2395.83,5023.75 2396.96,5020.28 2399.78,5019.07 2400.38,5016.66"/>
    <poly id="105945545" type="leisure" color="207,245,201" fill="1" layer="-2.00" shape="2412.38,5051.78 2411.61,5058.40 2425.21,5059.95 2425.98,5053.33 2412.38,5051.78"/>
    <poly id="106630688" type="parking" color="184,184,179" fill="1" layer="-1.00" shape="3239.41,4115.29 3231.33,4112.29 3206.34,4178.78 3213.12,4181.58 3221.27,4184.75 3247.06,4118.08 3239.41,4115.29"/>
    <poly id="109561910" type="water" color="181,209,209" fill="0" layer="-4.00" shape="2715.37,5251.93 2821.90,5115.01 3024.09,4867.46 3197.41,4668.45 3296.50,4556.68 3352.34,4471.79"/>
    <poly id="114245163" type="tourism" color="207,245,201" fill="1" layer="-2.00" shape="2602.20,4982.96 2620.57,5006.67 2623.94,5005.37 2623.30,4991.85 2624.72,4991.90 2625.32,4978.21 2602.20,4982.96"/>
    <poly id="114345518" type="building" color="255,230,230" fill="1" layer="-1.00" shape="2083.27,3533.95 2098.57,3529.34 2098.10,3527.79 2099.92,3527.23 2106.58,3549.18 2121.25,3544.76 2113.87,3520.41 2121.97,3517.97 2114.34,3492.79 2099.48,3497.27 2105.72,3517.87 2098.03,3520.18 2096.18,3514.05 2078.83,3519.28 2083.27,3533.95"/>
    <poly id="114664765" type="residential" color="235,235,227" fill="0" layer="-3.00" shape="1914.72,4427.90 1878.58,4435.50 1871.75,4437.06"/>
    <poly id="114812515" type="tourism" color="207,245,201" fill="1" layer="-2.00" shape="2565.72,4986.00 2569.05,4987.34 2571.81,4993.52 2578.44,5003.32 2582.91,5009.21 2590.95,5019.74 2599.32,5031.24 2600.77,5035.86 2601.63,5041.31 2600.99,5046.47 2598.01,5052.58 2593.95,5057.74 2586.60,5065.84 2581.37,5071.76 2561.10,5098.21 2554.53,5107.93 2565.72,4986.00"/>
    <poly id="114812517" type="building" color="255,230,230" fill="1" layer="-1.00" shape="2587.48,5036.19 2590.61,5036.39 2592.69,5038.73 2592.50,5041.86 2590.14,5043.93 2587.01,5043.74 2584.93,5041.39 2585.12,5038.26 2587.48,5036.19"/>
    <poly id="114812517#1" type="tourism" color="207,245,201" fill="1" layer="-2.00" shape="2587.48,5036.19 2590.61,5036.39 2592.69,5038.73 2592.50,5041.86 2590.14,5043.93 2587.01,5043.74 2584.93,5041.39 2585.12,5038.26 2587.48,5036.19"/>
    <poly id="115117351" type="building" color="255,230,230" fill="1" layer="-1.00" shape="2032.70,3314.71 2049.87,3310.68 2053.11,3322.27 2061.89,3326.15 2071.81,3331.56 2078.09,3338.49 2098.67,3332.88 2102.79,3323.38 2109.22,3316.08 2116.91,3308.70 2113.26,3296.20 2130.93,3290.96 2134.53,3306.75 2133.91,3317.30 2130.11,3328.00 2122.57,3335.98 2113.62,3343.64 2103.35,3348.71 2080.72,3354.42 2070.14,3355.11 2059.26,3352.78 2049.36,3347.64 2041.14,3338.13 2035.64,3326.81 2032.70,3314.71"/>
    <poly id="115117352" type="building" color="255,230,230" fill="1" layer="-1.00" shape="2019.17,3279.52 2042.58,3293.44 2069.46,3284.70 2051.63,3251.28 2011.98,3250.66 2019.17,3279.52"/>
    <poly id="116709827" type="amenity" color="237,199,199" fill="1" layer="-1.00" shape="1631.16,4246.30 1653.27,4241.10 1662.70,4254.18 1665.13,4270.24 1659.55,4273.60 1656.11,4273.69 1657.08,4287.78 1645.76,4287.86 1645.60,4273.76 1638.23,4277.98 1633.18,4270.03 1631.16,4246.30"/>
    <poly id="116709827#1" type="building" color="255,230,230" fill="1" layer="-1.00" shape="1631.16,4246.30 1653.27,4241.10 1662.70,4254.18 1665.13,4270.24 1659.55,4273.60 1656.11,4273.69 1657.08,4287.78 1645.76,4287.86 1645.60,4273.76 1638.23,4277.98 1633.18,4270.03 1631.16,4246.30"/>
    <poly id="116709832" type="leisure" color="207,245,201" fill="1" layer="-2.00" shape="1776.87,4309.61 1825.93,4296.47 1834.87,4329.65 1785.81,4342.78 1776.87,4309.61"/>
    <poly id="116709832#1" type="sport" color="79,230,125" fill="1" layer="-2.00" shape="1776.87,4309.61 1825.93,4296.47 1834.87,4329.65 1785.81,4342.78 1776.87,4309.61"/>
    <poly id="116709839" type="leisure" color="207,245,201" fill="1" layer="-2.00" shape="1767.73,4269.99 1815.25,4257.50 1824.08,4290.94 1776.57,4303.43 1767.73,4269.99"/>
    <poly id="116709839#1" type="sport" color="79,230,125" fill="1" layer="-2.00" shape="1767.73,4269.99 1815.25,4257.50 1824.08,4290.94 1776.57,4303.43 1767.73,4269.99"/>
    <poly id="116709843" type="leisure" color="207,245,201" fill="1" layer="-2.00" shape="1796.23,4381.44 1845.28,4368.30 1854.19,4401.36 1805.13,4414.51 1796.23,4381.44"/>
    <poly id="116709843#1" type="sport" color="79,230,125" fill="1" layer="-2.00" shape="1796.23,4381.44 1845.28,4368.30 1854.19,4401.36 1805.13,4414.51 1796.23,4381.44"/>
    <poly id="116709849" type="leisure" color="207,245,201" fill="1" layer="-2.00" shape="1786.36,4344.80 1835.42,4331.68 1844.33,4364.76 1795.26,4377.88 1786.36,4344.80"/>
    <poly id="116709849#1" type="sport" color="79,230,125" fill="1" layer="-2.00" shape="1786.36,4344.80 1835.42,4331.68 1844.33,4364.76 1795.26,4377.88 1786.36,4344.80"/>
    <poly id="116709852" type="building" color="255,230,230" fill="1" layer="-1.00" shape="1051.93,3750.74 1060.95,3748.57 1061.74,3751.85 1066.36,3750.74 1065.49,3747.15 1074.83,3744.90 1081.65,3773.09 1075.15,3774.66 1074.55,3772.18 1067.05,3773.99 1074.66,3805.51 1065.38,3807.74 1064.77,3805.20 1059.06,3806.57 1059.68,3809.13 1051.62,3811.07 1044.81,3782.90 1054.02,3780.69 1054.88,3784.25 1059.75,3783.08 1051.93,3750.74"/>
    <poly id="116709855" type="tourism" color="207,245,201" fill="1" layer="-2.00" shape="1125.67,3904.65 1126.43,3900.59 1127.83,3899.91 1130.48,3901.04 1157.04,3915.51 1157.32,3918.23 1156.84,3920.15 1155.39,3922.43 1124.80,3932.99 1122.85,3930.58 1125.67,3904.65"/>
    <poly id="116709861" type="parking" color="184,184,179" fill="1" layer="-1.00" shape="1029.15,3804.78 1021.35,3770.73 1021.91,3759.56 1026.39,3758.99 1026.83,3743.16 1070.62,3733.45 1072.81,3744.19 1049.75,3749.79 1056.55,3778.91 1042.62,3782.02 1048.09,3804.19 1036.04,3804.54 1029.15,3804.78"/>
    <poly id="116721540" type="building" color="255,230,230" fill="1" layer="-1.00" shape="1139.99,3369.57 1116.92,3365.62 1120.48,3344.98 1157.87,3351.38 1157.33,3354.51 1170.32,3356.74 1167.86,3371.00 1158.18,3369.34 1151.04,3410.72 1168.54,3413.72 1179.48,3350.22 1197.44,3353.29 1196.87,3356.61 1194.19,3372.16 1184.13,3430.56 1178.85,3429.66 1134.52,3422.06 1135.72,3415.14 1108.43,3410.47 1111.38,3393.36 1135.18,3397.43 1137.74,3382.56 1139.99,3369.57"/>
    <poly id="116721542" type="building" color="255,230,230" fill="1" layer="-1.00" shape="1093.08,3446.96 1103.16,3448.55 1108.51,3449.40 1104.51,3471.95 1089.26,3469.67 1090.65,3461.26 1099.85,3463.15 1100.84,3457.51 1091.58,3456.06 1092.41,3451.04 1093.08,3446.96"/>
    <poly id="116721543" type="amenity" color="237,199,199" fill="1" layer="-1.00" shape="1273.73,3610.30 1278.09,3605.93 1324.53,3520.93 1311.73,3506.03 1314.28,3500.10 1316.92,3493.97 1321.47,3402.11 1321.96,3394.36 1324.51,3355.90 1321.74,3355.51 1308.84,3352.60 1251.02,3340.90 1116.74,3312.80 1095.33,3434.75 1094.56,3438.94 1093.08,3446.96 1092.41,3451.04 1091.58,3456.06 1090.65,3461.26 1089.26,3469.67 1069.76,3589.71 1071.19,3591.38 1072.61,3592.80 1073.74,3593.76 1075.22,3594.62 1151.03,3600.56 1208.31,3605.13 1273.73,3610.30"/>
    <poly id="116721544" type="building" color="255,230,230" fill="1" layer="-1.00" shape="1194.19,3372.16 1196.87,3356.61 1206.61,3358.28 1207.15,3355.17 1203.05,3354.48 1205.07,3342.78 1239.52,3348.69 1236.92,3363.72 1225.17,3361.70 1224.88,3363.37 1224.61,3364.96 1228.59,3365.64 1226.51,3377.71 1194.19,3372.16"/>
    <poly id="116721545" type="building" color="255,230,230" fill="1" layer="-1.00" shape="1178.22,3507.08 1179.87,3507.37 1175.64,3531.17 1176.26,3535.48 1176.53,3543.13 1175.40,3551.00 1173.30,3557.90 1170.06,3563.91 1166.18,3568.72 1159.23,3563.87 1158.22,3563.18 1156.43,3562.81 1148.16,3561.10 1157.38,3512.56 1147.90,3510.68 1148.15,3509.50 1148.90,3505.98 1149.72,3502.02 1162.33,3504.01 1178.22,3507.08"/>
    <poly id="116940668" type="tourism" color="207,245,201" fill="1" layer="-2.00" shape="2079.86,5150.47 2076.16,5145.23 2066.24,5135.72 2052.71,5122.89 2045.84,5111.95 2042.47,5102.46 2041.18,5094.90 2042.78,5085.82 2046.36,5073.04 2051.23,5057.72 1999.07,5085.10 1968.90,5047.47 1902.63,5083.53 1866.91,5117.54 1797.78,5138.99 1759.04,5067.31 1752.18,5072.02 1745.54,5079.08 1714.84,5115.10 1689.56,5152.75 1686.14,5159.00 1683.36,5164.57 1680.62,5169.46 1678.15,5174.63 1670.04,5193.55 1668.11,5196.87 1666.79,5198.82 1666.01,5200.22 1662.10,5204.79 1636.92,5229.42 1612.24,5246.38 1615.51,5255.37 1616.56,5266.78 1613.87,5286.82 1626.86,5279.19 1640.24,5273.46 1652.64,5268.93 1668.54,5267.97 1684.66,5269.07 1697.85,5272.52 1702.78,5274.50 1717.26,5282.52 1725.66,5287.93 1738.24,5299.61 1745.15,5309.07 1752.03,5321.41 1749.35,5323.17 1764.15,5378.72 1778.21,5396.39 1777.85,5411.10 1782.52,5418.83 1788.50,5420.56 1797.73,5428.62 1819.68,5439.89 1844.37,5453.20 1855.54,5453.93 1876.20,5460.50 1884.38,5464.90 1886.75,5469.08 1886.50,5477.95 1882.83,5480.70 1879.78,5484.87 1879.25,5490.03 1885.01,5508.16 1885.13,5518.48 1879.70,5524.68 1879.90,5532.54 1897.34,5547.76 1912.50,5558.98 1926.99,5539.34 1918.78,5511.23 1909.32,5501.71 1902.20,5491.80 1896.67,5480.56 1900.80,5481.89 1903.73,5481.81 1906.24,5479.26 1907.69,5475.96 1906.41,5471.80 1903.02,5468.72 1909.21,5460.21 1925.21,5463.22 2057.58,5455.99 2099.03,5448.53 2123.20,5450.42 2134.90,5446.30 2146.85,5439.32 2170.04,5424.05 2177.59,5418.00 2194.67,5405.39 2204.20,5395.95 2217.78,5380.54 2218.71,5381.00 2219.81,5381.19 2221.43,5381.01 2223.17,5380.36 2224.47,5379.46 2225.48,5378.03 2225.92,5376.53 2225.63,5374.88 2237.75,5371.15 2240.58,5368.97 2242.45,5366.32 2243.40,5363.65 2239.41,5364.55 2238.93,5363.04 2238.53,5361.59 2240.83,5359.53 2240.67,5357.14 2239.25,5354.98 2236.20,5354.22 2238.68,5351.24 2235.23,5349.80 2231.24,5349.33 2227.94,5350.10 2217.88,5355.94 2216.94,5356.54 2214.46,5355.00 2211.72,5355.21 2203.13,5357.79 2187.14,5354.65 2182.96,5356.50 2177.19,5355.98 2170.58,5357.01 2163.66,5359.29 2152.63,5363.53 2143.50,5365.63 2135.50,5366.69 2126.36,5366.05 2115.42,5364.28 2106.19,5363.55 2101.10,5347.03 2096.58,5333.33 2098.92,5319.07 2132.11,5298.10 2119.06,5283.55 2177.65,5246.59 2251.79,5216.84 2291.14,5216.43 2338.66,5217.39 2374.63,5206.82 2398.15,5193.18 2418.04,5183.93 2475.84,5192.00 2493.72,5192.13 2514.28,5176.56 2524.57,5181.28 2531.21,5156.49 2542.93,5127.24 2547.51,5116.14 2543.55,5114.67 2495.20,5096.81 2452.10,5084.08 2404.25,5069.99 2402.26,5077.92 2374.66,5072.95 2353.39,5102.93 2341.91,5141.55 2232.42,5188.74 2210.02,5197.83 2147.05,5225.89 2139.70,5226.06 2125.42,5192.26 2079.86,5150.47"/>
    <poly id="117172013" type="building" color="255,230,230" fill="1" layer="-1.00" shape="2269.60,4193.22 2327.81,4176.15 2347.58,4170.35 2333.17,4116.97 2297.59,4125.85 2293.77,4111.81 2329.47,4103.25 2320.62,4070.47 2302.13,4075.03 2298.51,4062.41 2294.89,4049.78 2313.71,4044.89 2302.36,4002.84 2298.93,4003.75 2286.44,3951.67 2222.51,3966.36 2228.57,3972.87 2219.01,3979.29 2211.32,3984.37 2209.59,3978.11 2179.20,3985.23 2198.11,4057.54 2207.66,4055.27 2217.47,4090.31 2219.64,4098.05 2209.91,4100.73 2222.32,4145.25 2247.60,4146.51 2255.04,4146.88 2269.60,4193.22"/>
    <poly id="117172013#1" type="shop" color="237,199,255" fill="1" layer="-1.00" shape="2269.60,4193.22 2327.81,4176.15 2347.58,4170.35 2333.17,4116.97 2297.59,4125.85 2293.77,4111.81 2329.47,4103.25 2320.62,4070.47 2302.13,4075.03 2298.51,4062.41 2294.89,4049.78 2313.71,4044.89 2302.36,4002.84 2298.93,4003.75 2286.44,3951.67 2222.51,3966.36 2228.57,3972.87 2219.01,3979.29 2211.32,3984.37 2209.59,3978.11 2179.20,3985.23 2198.11,4057.54 2207.66,4055.27 2217.47,4090.31 2219.64,4098.05 2209.91,4100.73 2222.32,4145.25 2247.60,4146.51 2255.04,4146.88 2269.60,4193.22"/>
    <poly id="117827360" type="building" color="255,230,230" fill="1" layer="-1.00" shape="2169.89,3925.92 2130.03,3811.80 2204.30,3787.59 2217.54,3833.99 2198.28,3839.33 2194.82,3827.94 2202.36,3825.71 2196.03,3804.33 2146.20,3820.06 2179.04,3911.37 2198.17,3908.27 2197.51,3906.27 2207.77,3904.19 2207.08,3900.58 2217.74,3898.50 2218.22,3901.52 2225.87,3900.31 2224.28,3893.50 2221.06,3893.98 2215.92,3874.55 2208.08,3876.16 2204.95,3864.15 2223.63,3859.45 2235.36,3899.47 2256.04,3896.55 2258.31,3909.75 2169.89,3925.92"/>
    <poly id="117827855" type="building" color="255,230,230" fill="1" layer="-1.00" shape="2291.61,3904.08 2289.27,3890.47 2270.62,3893.65 2264.72,3894.66 2264.36,3892.60 2257.46,3893.77 2257.88,3896.24 2256.04,3896.55 2258.31,3909.75 2291.61,3904.08"/>
    <poly id="118033114" type="building" color="255,230,230" fill="1" layer="-1.00" shape="1168.32,4799.03 1207.02,4773.21 1215.75,4786.22 1205.59,4793.01 1203.46,4789.85 1185.08,4802.11 1187.24,4805.33 1177.09,4812.09 1168.32,4799.03"/>
    <poly id="118033116" type="amenity" color="237,199,199" fill="1" layer="-1.00" shape="1059.92,4879.01 1084.62,4877.54 1084.16,4869.94 1100.33,4868.98 1101.28,4884.85 1125.84,4883.40 1127.33,4908.26 1122.20,4908.57 1122.48,4913.22 1131.30,4912.68 1132.03,4925.02 1106.89,4926.51 1107.57,4937.80 1088.50,4938.94 1085.66,4891.59 1060.77,4893.07 1059.92,4879.01"/>
    <poly id="118033116#1" type="building" color="255,230,230" fill="1" layer="-1.00" shape="1059.92,4879.01 1084.62,4877.54 1084.16,4869.94 1100.33,4868.98 1101.28,4884.85 1125.84,4883.40 1127.33,4908.26 1122.20,4908.57 1122.48,4913.22 1131.30,4912.68 1132.03,4925.02 1106.89,4926.51 1107.57,4937.80 1088.50,4938.94 1085.66,4891.59 1060.77,4893.07 1059.92,4879.01"/>
    <poly id="118033118" type="building" color="255,230,230" fill="1" layer="-1.00" shape="1220.55,4967.24 1233.49,4985.38 1221.35,4994.00 1208.41,4975.85 1220.55,4967.24"/>
    <poly id="118033120" type="building" color="255,230,230" fill="1" layer="-1.00" shape="1163.39,4909.80 1194.39,4889.34 1187.89,4879.55 1156.89,4900.00 1163.39,4909.80"/>
    <poly id="118033122" type="building" color="255,230,230" fill="1" layer="-1.00" shape="1155.37,4845.19 1163.96,4839.45 1178.71,4861.43 1170.12,4867.17 1155.37,4845.19"/>
    <poly id="118033123" type="building" color="255,230,230" fill="1" layer="-1.00" shape="1137.88,4856.37 1152.79,4878.56 1142.13,4885.68 1127.22,4863.49 1137.88,4856.37"/>
    <poly id="118033124" type="building" color="255,230,230" fill="1" layer="-1.00" shape="1212.22,4806.52 1220.81,4800.79 1235.57,4822.76 1226.97,4828.50 1212.22,4806.52"/>
    <poly id="118033127" type="amenity" color="237,199,199" fill="1" layer="-1.00" shape="1100.23,4979.30 1156.23,4945.30 1166.67,4962.41 1129.58,4984.92 1126.55,4986.76 1127.46,4988.25 1130.37,4986.49 1145.38,5011.07 1131.65,5019.41 1116.73,4994.96 1119.33,4993.39 1118.40,4991.87 1115.41,4993.68 1110.74,4996.53 1100.23,4979.30"/>
    <poly id="118033127#1" type="building" color="255,230,230" fill="1" layer="-1.00" shape="1100.23,4979.30 1156.23,4945.30 1166.67,4962.41 1129.58,4984.92 1126.55,4986.76 1127.46,4988.25 1130.37,4986.49 1145.38,5011.07 1131.65,5019.41 1116.73,4994.96 1119.33,4993.39 1118.40,4991.87 1115.41,4993.68 1110.74,4996.53 1100.23,4979.30"/>
    <poly id="118033128" type="building" color="255,230,230" fill="1" layer="-1.00" shape="1103.43,4895.67 1112.43,4895.12 1113.28,4908.76 1118.31,4908.44 1118.65,4913.79 1104.61,4914.66 1103.43,4895.67"/>
    <poly id="118033131" type="building" color="255,230,230" fill="1" layer="-1.00" shape="1108.74,4838.31 1147.43,4812.48 1156.17,4825.50 1146.00,4832.28 1143.87,4829.11 1125.50,4841.38 1127.65,4844.59 1117.50,4851.36 1108.74,4838.31"/>
    <poly id="118033132" type="building" color="255,230,230" fill="1" layer="-1.00" shape="1176.22,4931.15 1189.24,4950.15 1200.72,4942.33 1187.70,4923.33 1176.22,4931.15"/>
    <poly id="118033133" type="building" color="255,230,230" fill="1" layer="-1.00" shape="1185.19,4824.56 1193.78,4818.83 1208.53,4840.81 1199.94,4846.54 1185.19,4824.56"/>
    <poly id="119568808" type="building" color="255,230,230" fill="1" layer="-1.00" shape="1461.59,4889.77 1475.34,4909.14 1489.80,4898.93 1476.05,4879.55 1461.59,4889.77"/>
    <poly id="119568809" type="building" color="255,230,230" fill="1" layer="-1.00" shape="1505.96,4991.37 1511.37,5000.78 1497.35,5008.79 1491.95,4999.37 1505.96,4991.37"/>
    <poly id="119568810" type="building" color="255,230,230" fill="1" layer="-1.00" shape="1583.61,4767.20 1580.57,4760.72 1558.52,4771.00 1564.67,4784.13 1586.73,4773.85 1586.50,4773.38 1590.86,4771.35 1587.97,4765.17 1583.61,4767.20"/>
    <poly id="119568811" type="building" color="255,230,230" fill="1" layer="-1.00" shape="1527.58,4996.47 1542.42,4986.42 1545.36,4990.75 1547.06,4989.59 1554.77,5000.91 1553.60,5001.71 1556.70,5006.25 1544.47,5014.52 1536.18,5002.35 1533.04,5004.48 1527.58,4996.47"/>
    <poly id="119568812" type="building" color="255,230,230" fill="1" layer="-1.00" shape="1365.72,4796.31 1386.84,4777.98 1399.14,4792.05 1393.65,4796.82 1390.56,4793.28 1374.94,4806.85 1365.72,4796.31"/>
    <poly id="119568813" type="building" color="255,230,230" fill="1" layer="-1.00" shape="1485.36,4925.15 1500.38,4913.59 1509.65,4925.56 1494.63,4937.13 1485.36,4925.15"/>
    <poly id="119568814" type="building" color="255,230,230" fill="1" layer="-1.00" shape="1453.31,4945.59 1460.39,4956.65 1479.49,4944.51 1473.07,4934.47 1474.34,4933.67 1472.14,4930.22 1449.65,4944.53 1451.19,4946.93 1453.31,4945.59"/>
    <poly id="119568815" type="building" color="255,230,230" fill="1" layer="-1.00" shape="1390.98,4813.96 1405.37,4800.46 1415.56,4811.26 1401.19,4824.75 1390.98,4813.96"/>
    <poly id="119568816" type="building" color="255,230,230" fill="1" layer="-1.00" shape="1522.30,5015.93 1531.41,5029.95 1516.35,5039.68 1507.25,5025.64 1522.30,5015.93"/>
    <poly id="119568817" type="building" color="255,230,230" fill="1" layer="-1.00" shape="1312.88,4843.06 1325.06,4857.76 1314.11,4866.78 1301.93,4852.09 1312.88,4843.06"/>
    <poly id="119568818" type="building" color="255,230,230" fill="1" layer="-1.00" shape="1335.22,4889.59 1343.12,4883.23 1358.09,4901.70 1350.19,4908.06 1335.22,4889.59"/>
    <poly id="119568819" type="building" color="255,230,230" fill="1" layer="-1.00" shape="1474.18,4974.19 1481.60,4986.26 1494.26,4978.52 1489.96,4971.53 1496.17,4967.73 1491.99,4960.94 1490.15,4962.06 1486.75,4956.53 1477.44,4962.23 1481.90,4969.47 1474.18,4974.19"/>
    <poly id="119568820" type="building" color="255,230,230" fill="1" layer="-1.00" shape="1360.00,4806.85 1373.25,4824.12 1365.15,4830.31 1351.90,4813.04 1360.00,4806.85"/>
    <poly id="119568821" type="building" color="255,230,230" fill="1" layer="-1.00" shape="1602.36,4949.90 1668.13,4901.83 1671.74,4906.59 1672.93,4905.70 1674.88,4908.57 1673.68,4909.26 1676.90,4913.45 1674.37,4915.50 1595.73,4973.49 1592.31,4968.86 1591.02,4969.79 1589.24,4967.36 1590.54,4966.42 1587.04,4961.33 1593.60,4956.42 1602.36,4949.90"/>
    <poly id="119568822" type="building" color="255,230,230" fill="1" layer="-1.00" shape="1523.69,4980.09 1519.90,4974.66 1523.40,4972.22 1521.36,4969.31 1532.74,4961.42 1538.56,4969.75 1523.69,4980.09"/>
    <poly id="119568823" type="building" color="255,230,230" fill="1" layer="-1.00" shape="1328.24,4830.82 1344.12,4848.59 1336.60,4855.26 1320.72,4837.49 1328.24,4830.82"/>
    <poly id="119568824" type="building" color="255,230,230" fill="1" layer="-1.00" shape="1512.17,4938.22 1521.59,4951.01 1512.51,4957.65 1515.03,4961.08 1507.86,4966.33 1495.92,4950.13 1512.17,4938.22"/>
    <poly id="119568825" type="building" color="255,230,230" fill="1" layer="-1.00" shape="1435.88,4922.10 1453.35,4909.03 1461.60,4919.98 1444.13,4933.06 1435.88,4922.10"/>
    <poly id="119568826" type="building" color="255,230,230" fill="1" layer="-1.00" shape="1523.55,4828.58 1502.70,4801.30 1520.36,4787.87 1526.84,4796.36 1539.21,4812.53 1541.64,4815.71 1549.82,4827.37 1531.50,4840.69 1523.55,4828.58"/>
    <poly id="119568827" type="building" color="255,230,230" fill="1" layer="-1.00" shape="1452.29,4855.76 1457.83,4863.66 1460.03,4862.13 1467.34,4872.57 1469.39,4871.13 1472.03,4874.92 1459.79,4883.44 1454.15,4875.39 1447.06,4880.34 1441.77,4872.79 1445.31,4870.32 1440.75,4863.81 1452.29,4855.76"/>
    <poly id="119568828" type="building" color="255,230,230" fill="1" layer="-1.00" shape="1491.27,5050.74 1495.16,5056.45 1493.10,5057.84 1494.50,5059.91 1489.55,5063.26 1493.58,5069.20 1486.43,5074.02 1476.99,5060.15 1479.82,5058.23 1478.25,5055.91 1484.87,5051.43 1486.56,5053.92 1491.27,5050.74"/>
    <poly id="128190878" type="leisure" color="207,245,201" fill="1" layer="-2.00" shape="1613.19,4479.13 1604.71,4460.52 1611.42,4428.54 1653.53,4415.01 1659.65,4430.11 1670.59,4456.70 1613.19,4479.13"/>
    <poly id="128267935" type="building" color="255,230,230" fill="1" layer="-1.00" shape="2434.52,3712.47 2459.26,3771.47 2497.67,3753.55 2499.54,3740.98 2486.44,3738.64 2485.17,3744.92 2465.64,3753.22 2457.82,3734.85 2445.85,3709.15 2434.52,3712.47"/>
    <poly id="128566792" type="building" color="255,230,230" fill="1" layer="-1.00" shape="2580.00,4163.14 2657.86,4129.44 2653.32,4117.09 2650.65,4104.90 2649.87,4092.00 2649.05,4077.50 2650.05,4062.96 2652.97,4052.23 2541.59,3973.60 2533.24,3985.83 2539.98,4018.32 2552.87,4015.73 2551.64,4002.61 2633.99,4057.25 2632.15,4074.97 2631.89,4091.54 2632.94,4106.26 2636.24,4120.23 2589.48,4142.04 2589.39,4138.64 2576.73,4141.68 2580.00,4163.14"/>
    <poly id="128566794" type="building" color="255,230,230" fill="1" layer="-1.00" shape="2919.50,3829.20 2955.63,3835.39 2944.21,3901.57 2908.09,3895.38 2911.85,3873.56 2919.50,3829.20"/>
    <poly id="128566794#1" type="leisure" color="207,245,201" fill="1" layer="-2.00" shape="2919.50,3829.20 2955.63,3835.39 2944.21,3901.57 2908.09,3895.38 2911.85,3873.56 2919.50,3829.20"/>
    <poly id="128566794#2" type="sport" color="79,230,125" fill="1" layer="-2.00" shape="2919.50,3829.20 2955.63,3835.39 2944.21,3901.57 2908.09,3895.38 2911.85,3873.56 2919.50,3829.20"/>
    <poly id="128566797" type="building" color="255,230,230" fill="1" layer="-1.00" shape="2673.75,4121.34 2704.41,4108.10 2702.47,4087.17 2676.75,4070.81 2668.78,4081.77 2688.51,4097.73 2667.73,4107.89 2673.75,4121.34"/>
    <poly id="128566799" type="building" color="255,230,230" fill="1" layer="-1.00" shape="2553.93,4033.11 2570.08,4029.74 2588.34,4116.85 2572.20,4120.21 2553.93,4033.11"/>
    <poly id="128598653" type="building" color="255,230,230" fill="1" layer="-1.00" shape="2663.57,4160.70 2668.62,4172.15 2597.63,4204.23 2612.91,4280.76 2598.69,4283.22 2578.97,4193.04 2592.84,4189.92 2663.57,4160.70"/>
    <poly id="130852116" type="amenity" color="237,199,199" fill="1" layer="-1.00" shape="3308.08,3784.86 3324.14,3698.63 3317.31,3697.32 3248.26,3684.80 3227.09,3680.97 3217.39,3679.21 3211.48,3679.99 3184.98,3685.88 3193.17,3716.76 3194.87,3723.18 3203.82,3724.63 3202.95,3731.84 3201.88,3741.62 3204.76,3767.51 3207.31,3790.47 3228.10,3794.00 3239.76,3795.97 3267.25,3800.78 3282.20,3803.23 3303.96,3807.02 3308.08,3784.86"/>
    <poly id="130852117" type="building" color="255,230,230" fill="1" layer="-1.00" shape="3193.17,4016.44 3182.80,4075.18 3189.81,4076.55 3196.69,4085.20 3206.73,4025.93 3236.02,4030.72 3235.29,4034.54 3256.67,4038.17 3262.28,4039.12 3271.43,3988.09 3281.38,3932.22 3246.14,3926.50 3183.31,3915.53 3163.78,3951.63 3161.82,3953.90 3159.24,3954.99 3157.91,3957.05 3157.36,3959.95 3158.82,3962.35 3161.10,3963.39 3163.98,3962.80 3166.02,3961.12 3167.22,3959.30 3169.74,3959.45 3158.89,4018.58 3158.16,4022.62 3164.69,4023.47 3173.14,4036.22 3176.64,4013.85 3193.17,4016.44"/>
    <poly id="131158824" type="leisure" color="207,245,201" fill="1" layer="-2.00" shape="1392.37,3836.64 1387.37,3821.04 1439.50,3805.33 1444.23,3820.92 1392.37,3836.64"/>
    <poly id="131158824#1" type="sport" color="79,230,125" fill="1" layer="-2.00" shape="1392.37,3836.64 1387.37,3821.04 1439.50,3805.33 1444.23,3820.92 1392.37,3836.64"/>
    <poly id="132662999" type="building" color="255,230,230" fill="1" layer="-1.00" shape="3368.80,3371.97 3368.57,3368.75 3368.03,3363.14 3367.80,3357.42 3367.38,3352.76 3367.07,3346.72 3366.65,3341.65 3613.25,3325.87 3871.56,3313.47 3871.63,3317.16 3872.05,3323.25 3872.26,3327.58 3872.55,3333.39 3872.99,3341.49 3873.10,3344.50 3857.26,3345.49 3615.75,3356.20 3368.80,3371.97"/>
    <poly id="136539573" type="building" color="255,230,230" fill="1" layer="-1.00" shape="2489.97,3712.42 2459.12,3721.07 2461.19,3726.25 2481.98,3720.49 2488.68,3721.68 2489.97,3712.42"/>
    <poly id="136539620" type="building" color="255,230,230" fill="1" layer="-1.00" shape="2445.85,3709.15 2504.22,3693.30 2506.61,3695.60 2499.54,3740.98 2486.44,3738.64 2457.82,3734.85 2445.85,3709.15"/>
    <poly id="136990235" type="building" color="255,230,230" fill="1" layer="-1.00" shape="2025.30,4307.52 2010.85,4300.92 2015.64,4290.17 2016.27,4289.35 2021.96,4282.00 2035.68,4266.87 2051.88,4254.12 2068.44,4243.63 2085.94,4234.89 2083.35,4226.62 2096.62,4222.40 2099.12,4231.82 2100.93,4231.40 2101.99,4235.87 2100.35,4236.45 2102.71,4245.32 2088.45,4251.18 2075.06,4257.68 2060.29,4266.74 2046.06,4278.63 2035.56,4289.95 2030.40,4297.91 2025.30,4307.52"/>
    <poly id="137086833" type="amenity" color="237,199,199" fill="1" layer="-1.00" shape="2613.11,3773.25 2649.98,3773.26 2691.75,3801.09 2663.44,3844.00 2640.91,3829.18 2596.49,3800.32 2595.94,3772.62 2613.11,3773.25"/>
    <poly id="137566949" type="building" color="255,230,230" fill="1" layer="-1.00" shape="2491.33,4393.45 2505.70,4444.57 2492.05,4448.33 2477.63,4397.30 2491.33,4393.45"/>
    <poly id="137566951" type="building" color="255,230,230" fill="1" layer="-1.00" shape="2491.33,4393.45 2484.98,4369.30 2451.40,4381.51 2455.00,4395.44 2475.38,4388.48 2477.63,4397.30 2491.33,4393.45"/>
    <poly id="137566953" type="building" color="255,230,230" fill="1" layer="-1.00" shape="2505.70,4444.57 2511.16,4464.54 2497.46,4468.16 2495.38,4460.56 2490.12,4461.84 2488.00,4454.14 2493.20,4452.54 2492.05,4448.33 2505.70,4444.57"/>
    <poly id="137566955" type="building" color="255,230,230" fill="1" layer="-1.00" shape="2451.40,4381.51 2425.11,4390.75 2431.67,4419.42 2433.37,4421.38 2451.89,4417.15 2453.58,4423.63 2457.74,4422.60 2460.94,4421.75 2455.00,4395.44 2451.40,4381.51"/>
    <poly id="137568836" type="building" color="255,230,230" fill="1" layer="-1.00" shape="2511.16,4464.54 2514.01,4476.01 2500.68,4479.53 2497.46,4468.16 2511.16,4464.54"/>
    <poly id="137568981" type="building" color="255,230,230" fill="1" layer="-1.00" shape="2514.01,4476.01 2517.72,4489.24 2504.19,4492.94 2500.68,4479.53 2514.01,4476.01"/>
    <poly id="137569023" type="building" color="255,230,230" fill="1" layer="-1.00" shape="2517.72,4489.24 2522.33,4505.99 2508.81,4509.69 2504.19,4492.94 2517.72,4489.24"/>
    <poly id="137569922" type="building" color="255,230,230" fill="1" layer="-1.00" shape="2522.33,4505.99 2524.68,4515.46 2513.64,4518.03 2511.18,4518.60 2508.81,4509.69 2522.33,4505.99"/>
    <poly id="137569924" type="building" color="255,230,230" fill="1" layer="-1.00" shape="2521.71,4550.21 2515.91,4551.22 2511.72,4532.44 2507.29,4533.27 2513.58,4565.11 2534.65,4561.10 2536.27,4558.30 2524.68,4515.46 2513.64,4518.03 2521.71,4550.21"/>