<?xml version="1.0"?>
<!-- generated on 2017-01-20 13:57:08.990000 by $Id: randomflows.py 21557 2016-09-28 10:43:52Z luecken $
  options: -n map.net.xml -r map.rou.xml -e 100 -l
-->
<flows>
    <flow id="0" from="60255936" to="461742208" begin="0" end="1000" number="100000"/>
    <flow id="2" rom="55055046#0" to="183184926" begin="0" end="1000" number="100000"/>
    <flow id="1" from="373882676#0" to="23491607#0" begin="0" end="1000" number="100000"/>
    <flow id="3"  from="373904859" to="-373882676#0" begin="0" end="1000" number="100000"/>
    <flow id="4" from="296910359#0" to="24726960#1" begin="0" end="1000" number="100000"/>
    <flow id="5" from="24671202#5" to="55532878#0" begin="0" end="1000" number="100000"/>
    <flow id="6" from="84722766#1" to="8049436" begin="0" end="1000" number="100000"/>
    <flow id="7" from="8049434" to="55493766#3" begin="0" end="1000" number="100000"/>
    <flow id="8" from="315316081#1" to="59556904#1" begin="0" end="1000" number="100000"/>
    <flow id="9" from="24691777#1" to="401773321" begin="0" end="1000" number="100000"/>
    <flow id="10" from="-24731293#3" to="324250257#1" begin="0" end="1000" number="100000"/>
    <flow id="11" from="-128169700#8" to="24727176#1" begin="0" end="1000" number="100000"/>
    <flow id="12" from="60434542" to="54724423#0" begin="0" end="1000" number="100000"/>
    <flow id="13" from="-35775319#0" to="-128190879" begin="0" end="1000" number="100000"/>
    <flow id="14" from="-106793134#1" to="148233399#1" begin="0" end="1000" number="100000"/>
    <flow id="15" from="24671202#5" to="35781568" begin="0" end="1000" number="100000"/>
    <flow id="16" from="24740028#0" to="60434539" begin="0" end="1000" number="100000"/>
    <flow id="17" from="324370382#0" to="24726999" begin="0" end="1000" number="100000"/>
    <flow id="18" from="24721943#6" to="24689522" begin="0" end="1000" number="100000"/>
    <flow id="19" from="-201138751#2" to="24689522" begin="0" end="1000" number="100000"/>
    <flow id="20" from="59546353#1" to="262071965#0" begin="0" end="1000" number="100000"/>
    <flow id="21" from="-290396055#1" to="-373882676#5" begin="0" end="1000" number="100000"/>
    <flow id="22" from="463970439" to="24727033#9" begin="0" end="1000" number="100000"/>
    <flow id="23" from="55447211#0" to="328773702#3" begin="0" end="1000" number="100000"/>
    <flow id="24" from="55492798#0" to="-128190879" begin="0" end="1000" number="100000"/>
    <flow id="25" from="17044822#3" to="324370382#1" begin="0" end="1000" number="100000"/>
    <flow id="26" from="-148347937#0" to="195016195#4" begin="0" end="1000" number="100000"/>
    <flow id="27" from="121097571#1" to="24724340" begin="0" end="1000" number="100000"/>
    <flow id="28" from="23491607#0" to="324370382#1" begin="0" end="1000" number="100000"/>
    <flow id="29" from="24724408#1" to="148347937#0" begin="0" end="1000" number="100000"/>
    <flow id="30" from="59556906#1" to="54357173#1" begin="0" end="1000" number="100000"/>
    <flow id="31" from="128169700#5" to="24690872#0" begin="0" end="1000" number="100000"/>
    <flow id="32" from="55532880#1" to="24690800" begin="0" end="1000" number="100000"/>
    <flow id="33" from="55532878#0" to="-15238236#4" begin="0" end="1000" number="100000"/>
    <flow id="34" from="305968331#0" to="263063853#1" begin="0" end="1000" number="100000"/>
    <flow id="35" from="-363073552#1" to="59546358" begin="0" end="1000" number="100000"/>
    <flow id="36" from="-35781569#2" to="42420796" begin="0" end="1000" number="100000"/>
    <flow id="37" from="24740343#3" to="377984448#2" begin="0" end="1000" number="100000"/>
    <flow id="38" from="59552732" to="55532883" begin="0" end="1000" number="100000"/>
    <flow id="39" from="-24680180#1" to="55532883" begin="0" end="1000" number="100000"/>
    <flow id="40" from="-128169700#8" to="24691830" begin="0" end="1000" number="100000"/>
    <flow id="41" from="55469432#3" to="373882676#1" begin="0" end="1000" number="100000"/>
    <flow id="42" from="24288480" to="123447622#1" begin="0" end="1000" number="100000"/>
    <flow id="43" from="59556910#0" to="55492798#0" begin="0" end="1000" number="100000"/>
    <flow id="44" from="-35781569#0" to="236483256#3" begin="0" end="1000" number="100000"/>
    <flow id="45" from="373904859" to="324370382#1" begin="0" end="1000" number="100000"/>
    <flow id="46" from="53864612" to="59556907#6" begin="0" end="1000" number="100000"/>
    <flow id="47" from="-458890597#1" to="34865705" begin="0" end="1000" number="100000"/>
    <flow id="48" from="141130691#0" to="201138752#2" begin="0" end="1000" number="100000"/>
    <flow id="49" from="-337178026#4" to="42420796" begin="0" end="1000" number="100000"/>
    <flow id="50" from="95842199#0" to="324250257#1" begin="0" end="1000" number="100000"/>
    <flow id="51" from="-24726291#1" to="-189297753#0" begin="0" end="1000" number="100000"/>
    <flow id="52" from="331237097#0" to="38790334#4" begin="0" end="1000" number="100000"/>
    <flow id="53" from="24740343#1" to="296896084#0" begin="0" end="1000" number="100000"/>
    <flow id="54" from="35049502#2" to="42420796" begin="0" end="1000" number="100000"/>
    <flow id="55" from="55447211#0" to="24724235" begin="0" end="1000" number="100000"/>
    <flow id="56" from="291749682#0" to="24721906#6" begin="0" end="1000" number="100000"/>
    <flow id="57" from="35049499#1" to="-24731329#1" begin="0" end="1000" number="100000"/>
    <flow id="58" from="59556907#10" to="58641888#2" begin="0" end="1000" number="100000"/>
    <flow id="59" from="27533472" to="20831748#0" begin="0" end="1000" number="100000"/>
    <flow id="60" from="-315316081#1" to="-194787707#5" begin="0" end="1000" number="100000"/>
    <flow id="61" from="336011435" to="-187286911#4" begin="0" end="1000" number="100000"/>
    <flow id="62" from="162101799#6" to="333834867" begin="0" end="1000" number="100000"/>
    <flow id="63" from="201138750#0" to="37392516#1" begin="0" end="1000" number="100000"/>
    <flow id="64" from="324250257#0" to="202512194#0" begin="0" end="1000" number="100000"/>
    <flow id="65" from="-27947852#3" to="-195016195#7" begin="0" end="1000" number="100000"/>
    <flow id="66" from="32266102" to="183583159" begin="0" end="1000" number="100000"/>
    <flow id="67" from="-24690872#0" to="459651219" begin="0" end="1000" number="100000"/>
    <flow id="68" from="-203252174#1" to="324370382#1" begin="0" end="1000" number="100000"/>
    <flow id="69" from="373904859" to="24691892" begin="0" end="1000" number="100000"/>
    <flow id="70" from="24691823#0" to="24724358" begin="0" end="1000" number="100000"/>
    <flow id="71" from="121097571#1" to="54727330#3" begin="0" end="1000" number="100000"/>
    <flow id="72" from="8049443" to="106793119#2" begin="0" end="1000" number="100000"/>
    <flow id="73" from="24724274" to="-363073552#1" begin="0" end="1000" number="100000"/>
    <flow id="74" from="23491612#1" to="55055035#1" begin="0" end="1000" number="100000"/>
    <flow id="75" from="24671202#5" to="-24690800" begin="0" end="1000" number="100000"/>
    <flow id="76" from="24691777#0" to="-24724408#3" begin="0" end="1000" number="100000"/>
    <flow id="77" from="324370382#0" to="-24680180#0" begin="0" end="1000" number="100000"/>
    <flow id="78" from="53864829#0" to="201007773#1" begin="0" end="1000" number="100000"/>
    <flow id="79" from="-205832340#18" to="59556906#4" begin="0" end="1000" number="100000"/>
    <flow id="80" from="35781569#3" to="29915843#0" begin="0" end="1000" number="100000"/>
    <flow id="81" from="54357165" to="24671202#5" begin="0" end="1000" number="100000"/>
    <flow id="82" from="34865699#1" to="27589014#1" begin="0" end="1000" number="100000"/>
    <flow id="83" from="324046094#2" to="288152137#0" begin="0" end="1000" number="100000"/>
    <flow id="84" from="60434540" to="296896087#0" begin="0" end="1000" number="100000"/>
    <flow id="85" from="55492798#0" to="54724395" begin="0" end="1000" number="100000"/>
    <flow id="86" from="50219645" to="296896084#0" begin="0" end="1000" number="100000"/>
    <flow id="87" from="212236840#1" to="380176472#1" begin="0" end="1000" number="100000"/>
    <flow id="88" from="-24682124#0" to="465237880" begin="0" end="1000" number="100000"/>
    <flow id="89" from="-24691801" to="24726999" begin="0" end="1000" number="100000"/>
    <flow id="90" from="-189297753#0" to="252397588#1" begin="0" end="1000" number="100000"/>
    <flow id="91" from="24691852" to="24726960#12" begin="0" end="1000" number="100000"/>
    <flow id="92" from="380176472#1" to="7988817" begin="0" end="1000" number="100000"/>
    <flow id="93" from="373904859" to="24726374#6" begin="0" end="1000" number="100000"/>
    <flow id="94" from="262231193#3" to="24682124#2" begin="0" end="1000" number="100000"/>
    <flow id="95" from="-189297753#0" to="-15238299#2" begin="0" end="1000" number="100000"/>
    <flow id="96" from="373904859" to="-179928068#0" begin="0" end="1000" number="100000"/>
    <flow id="97" from="380176472#0" to="-201138750#0" begin="0" end="1000" number="100000"/>
    <flow id="98" from="324370382#0" to="-24727176#1" begin="0" end="1000" number="100000"/>
    <flow id="99" from="58641888#6" to="201007773#1" begin="0" end="1000" number="100000"/>
    <flow id="555" from="263063853#1" to="35781569#2" begin="0" end="100" number="10000">
</flows>
